//Simulation briefs : 
//lv5 [BS] line [num 25, len 3999.118238 ft] service drop [num 90, len 5694.247558 ft] 
//lv4 [CS] line [num 3, len 467.247718 ft] service drop [num 8, len 534.329085 ft] 
//lv1 [BS] line [num 27, len 3177.272083 ft] service drop [num 128, len 6123.961154 ft] 
//lv3 [AS] line [num 29, len 3798.936473 ft] service drop [num 129, len 7168.688550 ft] 
//lv2 [CS] line [num 17, len 2370.086362 ft] service drop [num 62, len 3966.820665 ft] 
//mv [ABCN] line [num 22, len 3615.535877 ft] service drop [num 0, len 0.000000 ft] 
// topology flow
// lv5 77, 76, 67, 66, 65, 12, 64, 61, 60
// lv5 67, 68, 69, 70, 71, 72, 73, 74, 75
// lv5 77, 80, 81, 82, 83, 84
// lv5 61, 62, 63
// lv5 77, 78, 79
// lv4 104, 85
// lv4 104, 105, 106
// lv1 23, 25, 26, 27
// lv1 14, 13, 11, 10, 9, 8, 7, 5, 4 , 3, 2, 1
// lv1 14, 15, 16, 17, 18, 19, 20, 21, 23, 24
// lv1 2, 22
// lv1 26, 28, 29
// lv1 5, 6
// lv3 38, 39
// lv3 44, 48, 49, 56, 57, 30, 58, 59
// lv3 32, 33
// lv3 44, 38, 37, 36, 34, 32, 31
// lv3 44, 45, 46, 47
// lv3 49, 50, 51, 52, 53, 54, 55
// lv3 34, 35
// lv3 38, 40, 41, 42, 43
// lv2 88, 87, 86
// lv2 88, 89, 90, 91, 92
// lv2 88, 95, 96, 97, 98, 99, 100, 101, 102, 103
// lv2 91, 93, 94
// mv M85, TR104
// mv 107, M85, M84, M83, M82

// header, clock, and module#set iteration_limit=2000
#define stylesheet=C:\Users\gridlabd-3_0

clock {
	timestamp '2000-01-01 0:00:00';
	stoptime '2000-01-01 0:00:20';
	timezone EST+5EDT;
}

module powerflow {
	solver_method NR;
};

// physical parameters and properties
object overhead_line_conductor {
	name Iris;
	geometric_mean_radius 0.0122;
	resistance 1.679;
}

object line_spacing {
	name MV_spacing;
	distance_AB 2.5;
	distance_AC 4.5;
	distance_BC 7;
	distance_AN 4.272002;
	distance_BN 5.656854;
	distance_CN 5.0;
}

object line_configuration {
	name MV_LINE_CONFIG;
	conductor_A Iris;
	conductor_B Iris;
	conductor_C Iris;
	conductor_N Iris;
	spacing MV_spacing;
}

object triplex_line_conductor {
	name Shrimp;
	geometric_mean_radius 0.01073;
	resistance 0.825;
}

object triplex_line_configuration {
	name LV_LINE_CONFIG;
	conductor_1 Shrimp;
	conductor_2 Shrimp;
	conductor_N Shrimp;
	insulation_thickness 0.045;
	diameter 0.522;
}

object triplex_line_conductor {
	name AWG6;
	geometric_mean_radius 0.00675;
	resistance 2.224;
}

object triplex_line_configuration {
	name SERVICE_DROP_CONFIG;
	conductor_1 AWG6;
	conductor_2 AWG6;
	conductor_N AWG6;
	insulation_thickness 0.045;
	diameter 0.522;
}

// transformers
object transformer_configuration {
	name split_BS_77;
	connect_type SINGLE_PHASE_CENTER_TAPPED;
	install_type POLETOP;
	primary_voltage 7200.0;
	secondary_voltage 120.0;
	power_rating 100.0;
	powerB_rating 100.0;
	impedance 0.006+0.014j;
	impedance1 0.012+0.020j;
	impedance2 0.012+0.020j;
	shunt_impedance 259200.000+103680.000j;
}

object transformer {
	phases BS;
	configuration split_BS_77;
	from TR77;
	to n77;
	name t_TR77_n77;
	nominal_voltage 7200.0;
}

object transformer_configuration {
	name split_CS_88;
	connect_type SINGLE_PHASE_CENTER_TAPPED;
	install_type POLETOP;
	primary_voltage 7200.0;
	secondary_voltage 120.0;
	power_rating 100.0;
	powerC_rating 100.0;
	impedance 0.006+0.014j;
	impedance1 0.012+0.020j;
	impedance2 0.012+0.020j;
	shunt_impedance 259200.000+103680.000j;
}

object transformer {
	phases CS;
	configuration split_CS_88;
	from TR88;
	to n88;
	name t_TR88_n88;
	nominal_voltage 7200.0;
}

object transformer_configuration {
	name split_BS_14;
	connect_type SINGLE_PHASE_CENTER_TAPPED;
	install_type POLETOP;
	primary_voltage 7200.0;
	secondary_voltage 120.0;
	power_rating 100.0;
	powerB_rating 100.0;
	impedance 0.006+0.014j;
	impedance1 0.012+0.020j;
	impedance2 0.012+0.020j;
	shunt_impedance 259200.000+103680.000j;
}

object transformer {
	phases BS;
	configuration split_BS_14;
	from TR14;
	to n14;
	name t_TR14_n14;
	nominal_voltage 7200.0;
}

object transformer_configuration {
	name split_AS_44;
	connect_type SINGLE_PHASE_CENTER_TAPPED;
	install_type POLETOP;
	primary_voltage 7200.0;
	secondary_voltage 120.0;
	power_rating 100.0;
	powerA_rating 100.0;
	impedance 0.006+0.014j;
	impedance1 0.012+0.020j;
	impedance2 0.012+0.020j;
	shunt_impedance 259200.000+103680.000j;
}

object transformer {
	phases AS;
	configuration split_AS_44;
	from TR44;
	to n44;
	name t_TR44_n44;
	nominal_voltage 7200.0;
}

object transformer_configuration {
	name split_CS_104;
	connect_type SINGLE_PHASE_CENTER_TAPPED;
	install_type POLETOP;
	primary_voltage 7200.0;
	secondary_voltage 120.0;
	power_rating 100.0;
	powerC_rating 100.0;
	impedance 0.006+0.014j;
	impedance1 0.012+0.020j;
	impedance2 0.012+0.020j;
	shunt_impedance 259200.000+103680.000j;
}

object transformer {
	phases CS;
	configuration split_CS_104;
	from TR104;
	to n104;
	name t_TR104_n104;
	nominal_voltage 7200.0;
}

// lines
object triplex_line {
	phases BS;
	from n77;
	to n76;
	name lv_n77_n76;
	configuration LV_LINE_CONFIG;
	length 148.322511308;
}

object triplex_line {
	phases BS;
	from n77;
	to n80;
	name lv_n77_n80;
	configuration LV_LINE_CONFIG;
	length 165.29035962;
}

object triplex_line {
	phases BS;
	from n77;
	to BC23;
	name lv_n77_BC23;
	configuration SERVICE_DROP_CONFIG;
	length 82.470803164;
}

object triplex_line {
	phases BS;
	from n77;
	to BC25;
	name lv_n77_BC25;
	configuration SERVICE_DROP_CONFIG;
	length 82.470803164;
}

object triplex_line {
	phases BS;
	from n76;
	to n67;
	name lv_n76_n67;
	configuration SERVICE_DROP_CONFIG;
	length 204.583011796;
}

object triplex_line {
	phases BS;
	from n76;
	to BC17;
	name lv_n76_BC17;
	configuration SERVICE_DROP_CONFIG;
	length 60.630907452;
}

object triplex_line {
	phases BS;
	from n76;
	to BC19;
	name lv_n76_BC19;
	configuration SERVICE_DROP_CONFIG;
	length 60.630907452;
}

object triplex_line {
	phases BS;
	from n77;
	to n78;
	name lv_n77_n78;
	configuration SERVICE_DROP_CONFIG;
	length 182.089572756;
}

object triplex_line {
	phases BS;
	from n77;
	to BC21;
	name lv_n77_BC21;
	configuration SERVICE_DROP_CONFIG;
	length 82.470803164;
}

object triplex_line {
	phases BS;
	from n80;
	to n81;
	name lv_n80_n81;
	configuration SERVICE_DROP_CONFIG;
	length 207.771332108;
}

object triplex_line {
	phases BS;
	from n80;
	to BC29;
	name lv_n80_BC29;
	configuration SERVICE_DROP_CONFIG;
	length 44.75721928;
}

object triplex_line {
	phases BS;
	from n67;
	to n66;
	name lv_n67_n66;
	configuration SERVICE_DROP_CONFIG;
	length 162.671265048;
}

object triplex_line {
	phases BS;
	from n67;
	to BC2;
	name lv_n67_BC2;
	configuration SERVICE_DROP_CONFIG;
	length 47.557744304;
}

object triplex_line {
	phases BS;
	from n76;
	to BC15;
	name lv_n76_BC15;
	configuration SERVICE_DROP_CONFIG;
	length 60.630907452;
}

object triplex_line {
	phases BS;
	from n78;
	to n79;
	name lv_n78_n79;
	configuration SERVICE_DROP_CONFIG;
	length 209.43734266;
}

object triplex_line {
	phases BS;
	from n78;
	to IN8;
	name lv_n78_IN8;
	configuration SERVICE_DROP_CONFIG;
	length 84.488519764;
}

object triplex_line {
	phases BS;
	from n78;
	to IN6;
	name lv_n78_IN6;
	configuration SERVICE_DROP_CONFIG;
	length 84.488519764;
}

object triplex_line {
	phases BS;
	from n78;
	to IN2;
	name lv_n78_IN2;
	configuration SERVICE_DROP_CONFIG;
	length 84.488519764;
}

object triplex_line {
	phases BS;
	from n78;
	to IN10;
	name lv_n78_IN10;
	configuration SERVICE_DROP_CONFIG;
	length 84.488519764;
}

object triplex_line {
	phases BS;
	from n78;
	to IN5;
	name lv_n78_IN5;
	configuration SERVICE_DROP_CONFIG;
	length 84.488519764;
}

object triplex_line {
	phases BS;
	from n78;
	to IN2B;
	name lv_n78_IN2B;
	configuration SERVICE_DROP_CONFIG;
	length 84.488519764;
}

object triplex_line {
	phases BS;
	from n81;
	to n82;
	name lv_n81_n82;
	configuration SERVICE_DROP_CONFIG;
	length 189.561357772;
}

object triplex_line {
	phases BS;
	from n81;
	to RG2;
	name lv_n81_RG2;
	configuration SERVICE_DROP_CONFIG;
	length 64.437666104;
}

object triplex_line {
	phases BS;
	from n81;
	to RG6;
	name lv_n81_RG6;
	configuration SERVICE_DROP_CONFIG;
	length 64.437666104;
}

object triplex_line {
	phases BS;
	from n66;
	to n65;
	name lv_n66_n65;
	configuration SERVICE_DROP_CONFIG;
	length 171.53707898;
}

object triplex_line {
	phases BS;
	from n66;
	to CN41;
	name lv_n66_CN41;
	configuration SERVICE_DROP_CONFIG;
	length 72.544621744;
}

object triplex_line {
	phases BS;
	from n66;
	to BC1;
	name lv_n66_BC1;
	configuration SERVICE_DROP_CONFIG;
	length 72.544621744;
}

object triplex_line {
	phases BS;
	from n67;
	to n68;
	name lv_n67_n68;
	configuration SERVICE_DROP_CONFIG;
	length 67.809713456;
}

object triplex_line {
	phases BS;
	from n78;
	to IN4;
	name lv_n78_IN4;
	configuration SERVICE_DROP_CONFIG;
	length 84.488519764;
}

object triplex_line {
	phases BS;
	from n79;
	to IN14;
	name lv_n79_IN14;
	configuration SERVICE_DROP_CONFIG;
	length 30.897638784;
}

object triplex_line {
	phases BS;
	from n79;
	to IN11;
	name lv_n79_IN11;
	configuration SERVICE_DROP_CONFIG;
	length 30.897638784;
}

object triplex_line {
	phases BS;
	from n78;
	to IN1;
	name lv_n78_IN1;
	configuration SERVICE_DROP_CONFIG;
	length 84.488519764;
}

object triplex_line {
	phases BS;
	from n81;
	to RG4;
	name lv_n81_RG4;
	configuration SERVICE_DROP_CONFIG;
	length 64.437666104;
}

object triplex_line {
	phases BS;
	from n82;
	to n83;
	name lv_n82_n83;
	configuration SERVICE_DROP_CONFIG;
	length 201.459324032;
}

object triplex_line {
	phases BS;
	from n82;
	to RG10;
	name lv_n82_RG10;
	configuration SERVICE_DROP_CONFIG;
	length 46.428479176;
}

object triplex_line {
	phases BS;
	from n82;
	to RG18A;
	name lv_n82_RG18A;
	configuration SERVICE_DROP_CONFIG;
	length 46.428479176;
}

object triplex_line {
	phases BS;
	from n65;
	to n12;
	name lv_n65_n12;
	configuration SERVICE_DROP_CONFIG;
	length 99.991473016;
}

object triplex_line {
	phases BS;
	from n65;
	to CN36;
	name lv_n65_CN36;
	configuration SERVICE_DROP_CONFIG;
	length 12.87073532;
}

object triplex_line {
	phases BS;
	from n68;
	to n69;
	name lv_n68_n69;
	configuration SERVICE_DROP_CONFIG;
	length 124.07480712;
}

object triplex_line {
	phases BS;
	from n68;
	to BC9C;
	name lv_n68_BC9C;
	configuration SERVICE_DROP_CONFIG;
	length 40.216864804;
}

object triplex_line {
	phases BS;
	from n68;
	to NV31;
	name lv_n68_NV31;
	configuration SERVICE_DROP_CONFIG;
	length 40.216864804;
}

object triplex_line {
	phases BS;
	from n79;
	to IN12;
	name lv_n79_IN12;
	configuration SERVICE_DROP_CONFIG;
	length 30.897638784;
}

object triplex_line {
	phases BS;
	from n82;
	to RG18;
	name lv_n82_RG18;
	configuration SERVICE_DROP_CONFIG;
	length 46.428479176;
}

object triplex_line {
	phases BS;
	from n83;
	to n84;
	name lv_n83_n84;
	configuration SERVICE_DROP_CONFIG;
	length 219.749678948;
}

object triplex_line {
	phases BS;
	from n83;
	to RG24;
	name lv_n83_RG24;
	configuration SERVICE_DROP_CONFIG;
	length 87.544622224;
}

object triplex_line {
	phases BS;
	from n83;
	to RG26A;
	name lv_n83_RG26A;
	configuration SERVICE_DROP_CONFIG;
	length 87.544622224;
}

object triplex_line {
	phases BS;
	from n83;
	to RG26;
	name lv_n83_RG26;
	configuration SERVICE_DROP_CONFIG;
	length 87.544622224;
}

object triplex_line {
	phases BS;
	from n83;
	to RG20;
	name lv_n83_RG20;
	configuration SERVICE_DROP_CONFIG;
	length 87.544622224;
}

object triplex_line {
	phases BS;
	from n12;
	to n64;
	name lv_n12_n64;
	configuration SERVICE_DROP_CONFIG;
	length 141.358928408;
}

object triplex_line {
	phases BS;
	from n12;
	to DI3A;
	name lv_n12_DI3A;
	configuration SERVICE_DROP_CONFIG;
	length 68.576445764;
}

object triplex_line {
	phases BS;
	from n12;
	to CN34;
	name lv_n12_CN34;
	configuration SERVICE_DROP_CONFIG;
	length 68.576445764;
}

object triplex_line {
	phases BS;
	from n12;
	to DI4;
	name lv_n12_DI4;
	configuration SERVICE_DROP_CONFIG;
	length 68.576445764;
}

object triplex_line {
	phases BS;
	from n68;
	to NV33;
	name lv_n68_NV33;
	configuration SERVICE_DROP_CONFIG;
	length 40.216864804;
}

object triplex_line {
	phases BS;
	from n69;
	to n70;
	name lv_n69_n70;
	configuration SERVICE_DROP_CONFIG;
	length 132.900594804;
}

object triplex_line {
	phases BS;
	from n69;
	to NV25;
	name lv_n69_NV25;
	configuration SERVICE_DROP_CONFIG;
	length 71.667325128;
}

object triplex_line {
	phases BS;
	from n69;
	to NV23A;
	name lv_n69_NV23A;
	configuration SERVICE_DROP_CONFIG;
	length 71.667325128;
}

object triplex_line {
	phases BS;
	from n83;
	to RG22;
	name lv_n83_RG22;
	configuration SERVICE_DROP_CONFIG;
	length 87.544622224;
}

object triplex_line {
	phases BS;
	from n84;
	to RG28;
	name lv_n84_RG28;
	configuration SERVICE_DROP_CONFIG;
	length 90.896000284;
}

object triplex_line {
	phases BS;
	from n64;
	to n61;
	name lv_n64_n61;
	configuration SERVICE_DROP_CONFIG;
	length 138.899610744;
}

object triplex_line {
	phases BS;
	from n64;
	to DI10;
	name lv_n64_DI10;
	configuration SERVICE_DROP_CONFIG;
	length 54.937009632;
}

object triplex_line {
	phases BS;
	from n64;
	to DI9;
	name lv_n64_DI9;
	configuration SERVICE_DROP_CONFIG;
	length 54.937009632;
}

object triplex_line {
	phases BS;
	from n64;
	to DI7;
	name lv_n64_DI7;
	configuration SERVICE_DROP_CONFIG;
	length 54.937009632;
}

object triplex_line {
	phases BS;
	from n12;
	to CN32;
	name lv_n12_CN32;
	configuration SERVICE_DROP_CONFIG;
	length 68.576445764;
}

object triplex_line {
	phases BS;
	from n70;
	to n71;
	name lv_n70_n71;
	configuration SERVICE_DROP_CONFIG;
	length 154.771658496;
}

object triplex_line {
	phases BS;
	from n70;
	to NV17A;
	name lv_n70_NV17A;
	configuration SERVICE_DROP_CONFIG;
	length 101.513126608;
}

object triplex_line {
	phases BS;
	from n70;
	to NV19;
	name lv_n70_NV19;
	configuration SERVICE_DROP_CONFIG;
	length 101.513126608;
}

object triplex_line {
	phases BS;
	from n70;
	to NV15;
	name lv_n70_NV15;
	configuration SERVICE_DROP_CONFIG;
	length 101.513126608;
}

object triplex_line {
	phases BS;
	from n70;
	to NV21;
	name lv_n70_NV21;
	configuration SERVICE_DROP_CONFIG;
	length 101.513126608;
}

object triplex_line {
	phases BS;
	from n61;
	to n60;
	name lv_n61_n60;
	configuration SERVICE_DROP_CONFIG;
	length 173.568247024;
}

object triplex_line {
	phases BS;
	from n61;
	to n62;
	name lv_n61_n62;
	configuration SERVICE_DROP_CONFIG;
	length 197.161095548;
}

object triplex_line {
	phases BS;
	from n61;
	to DI21;
	name lv_n61_DI21;
	configuration SERVICE_DROP_CONFIG;
	length 69.25689198;
}

object triplex_line {
	phases BS;
	from n61;
	to DI19;
	name lv_n61_DI19;
	configuration SERVICE_DROP_CONFIG;
	length 69.25689198;
}

object triplex_line {
	phases BS;
	from n61;
	to DI15;
	name lv_n61_DI15;
	configuration SERVICE_DROP_CONFIG;
	length 69.25689198;
}

object triplex_line {
	phases BS;
	from n61;
	to DI21A;
	name lv_n61_DI21A;
	configuration SERVICE_DROP_CONFIG;
	length 69.25689198;
}

object triplex_line {
	phases BS;
	from n64;
	to DI11;
	name lv_n64_DI11;
	configuration SERVICE_DROP_CONFIG;
	length 54.937009632;
}

object triplex_line {
	phases BS;
	from n64;
	to DI3;
	name lv_n64_DI3;
	configuration SERVICE_DROP_CONFIG;
	length 54.937009632;
}

object triplex_line {
	phases BS;
	from n64;
	to DI5;
	name lv_n64_DI5;
	configuration SERVICE_DROP_CONFIG;
	length 54.937009632;
}

object triplex_line {
	phases BS;
	from n70;
	to NV17;
	name lv_n70_NV17;
	configuration SERVICE_DROP_CONFIG;
	length 101.513126608;
}

object triplex_line {
	phases BS;
	from n71;
	to n72;
	name lv_n71_n72;
	configuration SERVICE_DROP_CONFIG;
	length 141.997051788;
}

object triplex_line {
	phases BS;
	from n71;
	to NV13A;
	name lv_n71_NV13A;
	configuration SERVICE_DROP_CONFIG;
	length 139.605319428;
}

object triplex_line {
	phases BS;
	from n71;
	to NV9A;
	name lv_n71_NV9A;
	configuration SERVICE_DROP_CONFIG;
	length 139.605319428;
}

object triplex_line {
	phases BS;
	from n71;
	to NV7A;
	name lv_n71_NV7A;
	configuration SERVICE_DROP_CONFIG;
	length 139.605319428;
}

object triplex_line {
	phases BS;
	from n71;
	to NV3;
	name lv_n71_NV3;
	configuration SERVICE_DROP_CONFIG;
	length 139.605319428;
}

object triplex_line {
	phases BS;
	from n60;
	to DI23A;
	name lv_n60_DI23A;
	configuration SERVICE_DROP_CONFIG;
	length 40.1246732;
}

object triplex_line {
	phases BS;
	from n60;
	to DI23;
	name lv_n60_DI23;
	configuration SERVICE_DROP_CONFIG;
	length 40.1246732;
}

object triplex_line {
	phases BS;
	from n61;
	to DI17;
	name lv_n61_DI17;
	configuration SERVICE_DROP_CONFIG;
	length 69.25689198;
}

object triplex_line {
	phases BS;
	from n61;
	to DI12;
	name lv_n61_DI12;
	configuration SERVICE_DROP_CONFIG;
	length 69.25689198;
}

object triplex_line {
	phases BS;
	from n62;
	to n63;
	name lv_n62_n63;
	configuration SERVICE_DROP_CONFIG;
	length 152.85597602;
}

object triplex_line {
	phases BS;
	from n62;
	to TV12;
	name lv_n62_TV12;
	configuration SERVICE_DROP_CONFIG;
	length 20.256234244;
}

object triplex_line {
	phases BS;
	from n62;
	to TV16;
	name lv_n62_TV16;
	configuration SERVICE_DROP_CONFIG;
	length 20.256234244;
}

object triplex_line {
	phases BS;
	from n71;
	to NV7;
	name lv_n71_NV7;
	configuration SERVICE_DROP_CONFIG;
	length 139.605319428;
}

object triplex_line {
	phases BS;
	from n72;
	to n73;
	name lv_n72_n73;
	configuration SERVICE_DROP_CONFIG;
	length 147.2933118;
}

object triplex_line {
	phases BS;
	from n72;
	to DN11A;
	name lv_n72_DN11A;
	configuration SERVICE_DROP_CONFIG;
	length 23.22342594;
}

object triplex_line {
	phases BS;
	from n72;
	to DN13;
	name lv_n72_DN13;
	configuration SERVICE_DROP_CONFIG;
	length 23.22342594;
}

object triplex_line {
	phases BS;
	from n72;
	to DN9A;
	name lv_n72_DN9A;
	configuration SERVICE_DROP_CONFIG;
	length 23.22342594;
}

object triplex_line {
	phases BS;
	from n72;
	to DN7;
	name lv_n72_DN7;
	configuration SERVICE_DROP_CONFIG;
	length 23.22342594;
}

object triplex_line {
	phases BS;
	from n72;
	to DN9;
	name lv_n72_DN9;
	configuration SERVICE_DROP_CONFIG;
	length 23.22342594;
}

object triplex_line {
	phases BS;
	from n71;
	to NV9;
	name lv_n71_NV9;
	configuration SERVICE_DROP_CONFIG;
	length 139.605319428;
}

object triplex_line {
	phases BS;
	from n60;
	to DI25;
	name lv_n60_DI25;
	configuration SERVICE_DROP_CONFIG;
	length 40.1246732;
}

object triplex_line {
	phases BS;
	from n62;
	to TV14;
	name lv_n62_TV14;
	configuration SERVICE_DROP_CONFIG;
	length 20.256234244;
}

object triplex_line {
	phases BS;
	from n63;
	to TV13;
	name lv_n63_TV13;
	configuration SERVICE_DROP_CONFIG;
	length 24.100394472;
}

object triplex_line {
	phases BS;
	from n72;
	to DN11;
	name lv_n72_DN11;
	configuration SERVICE_DROP_CONFIG;
	length 23.22342594;
}

object triplex_line {
	phases BS;
	from n72;
	to DN6;
	name lv_n72_DN6;
	configuration SERVICE_DROP_CONFIG;
	length 23.22342594;
}

object triplex_line {
	phases BS;
	from n73;
	to n74;
	name lv_n73_n74;
	configuration SERVICE_DROP_CONFIG;
	length 118.527890932;
}

object triplex_line {
	phases BS;
	from n73;
	to DN19;
	name lv_n73_DN19;
	configuration SERVICE_DROP_CONFIG;
	length 64.497049308;
}

object triplex_line {
	phases BS;
	from n73;
	to DN12A;
	name lv_n73_DN12A;
	configuration SERVICE_DROP_CONFIG;
	length 64.497049308;
}

object triplex_line {
	phases BS;
	from n72;
	to DN12;
	name lv_n72_DN12;
	configuration SERVICE_DROP_CONFIG;
	length 23.22342594;
}

object triplex_line {
	phases BS;
	from n73;
	to DN18;
	name lv_n73_DN18;
	configuration SERVICE_DROP_CONFIG;
	length 64.497049308;
}

object triplex_line {
	phases BS;
	from n74;
	to n75;
	name lv_n74_n75;
	configuration SERVICE_DROP_CONFIG;
	length 145.435044024;
}

object triplex_line {
	phases BS;
	from n74;
	to DN23;
	name lv_n74_DN23;
	configuration SERVICE_DROP_CONFIG;
	length 9.81463286;
}

object triplex_line {
	phases BS;
	from n74;
	to DN25;
	name lv_n74_DN25;
	configuration SERVICE_DROP_CONFIG;
	length 9.81463286;
}

object triplex_line {
	phases BS;
	from n74;
	to DN18B;
	name lv_n74_DN18B;
	configuration SERVICE_DROP_CONFIG;
	length 9.81463286;
}

object triplex_line {
	phases BS;
	from n74;
	to DN22;
	name lv_n74_DN22;
	configuration SERVICE_DROP_CONFIG;
	length 9.81463286;
}

object triplex_line {
	phases BS;
	from n75;
	to DN24;
	name lv_n75_DN24;
	configuration SERVICE_DROP_CONFIG;
	length 66.208335452;
}

object triplex_line {
	phases BS;
	from n75;
	to DN26;
	name lv_n75_DN26;
	configuration SERVICE_DROP_CONFIG;
	length 66.208335452;
}

object triplex_line {
	phases CS;
	from n104;
	to n85;
	name lv_n104_n85;
	configuration LV_LINE_CONFIG;
	length 207.701122132;
}

object triplex_line {
	phases CS;
	from n104;
	to DG1;
	name lv_n104_DG1;
	configuration SERVICE_DROP_CONFIG;
	length 46.723754776;
}

object triplex_line {
	phases CS;
	from n104;
	to DG5;
	name lv_n104_DG5;
	configuration SERVICE_DROP_CONFIG;
	length 46.723754776;
}

object triplex_line {
	phases CS;
	from n85;
	to DII80;
	name lv_n85_DII80;
	configuration SERVICE_DROP_CONFIG;
	length 106.73064646;
}

object triplex_line {
	phases CS;
	from n104;
	to n105;
	name lv_n104_n105;
	configuration SERVICE_DROP_CONFIG;
	length 132.963586932;
}

object triplex_line {
	phases CS;
	from n85;
	to DG4;
	name lv_n85_DG4;
	configuration SERVICE_DROP_CONFIG;
	length 106.73064646;
}

object triplex_line {
	phases CS;
	from n105;
	to n106;
	name lv_n105_n106;
	configuration SERVICE_DROP_CONFIG;
	length 126.5830093;
}

object triplex_line {
	phases CS;
	from n105;
	to DG10;
	name lv_n105_DG10;
	configuration SERVICE_DROP_CONFIG;
	length 39.011812272;
}

object triplex_line {
	phases CS;
	from n106;
	to DG9;
	name lv_n106_DG9;
	configuration SERVICE_DROP_CONFIG;
	length 62.802823532;
}

object triplex_line {
	phases CS;
	from n106;
	to DG12;
	name lv_n106_DG12;
	configuration SERVICE_DROP_CONFIG;
	length 62.802823532;
}

object triplex_line {
	phases CS;
	from n106;
	to DG11;
	name lv_n106_DG11;
	configuration SERVICE_DROP_CONFIG;
	length 62.802823532;
}

object triplex_line {
	phases BS;
	from n14;
	to n15;
	name lv_n14_n15;
	configuration LV_LINE_CONFIG;
	length 152.858600692;
}

object triplex_line {
	phases BS;
	from n14;
	to CN26;
	name lv_n14_CN26;
	configuration SERVICE_DROP_CONFIG;
	length 49.331366408;
}

object triplex_line {
	phases BS;
	from n14;
	to CN29A;
	name lv_n14_CN29A;
	configuration SERVICE_DROP_CONFIG;
	length 49.331366408;
}

object triplex_line {
	phases BS;
	from n15;
	to n16;
	name lv_n15_n16;
	configuration SERVICE_DROP_CONFIG;
	length 132.74606724;
}

object triplex_line {
	phases BS;
	from n15;
	to SAN6;
	name lv_n15_SAN6;
	configuration SERVICE_DROP_CONFIG;
	length 33.666011576;
}

object triplex_line {
	phases BS;
	from n15;
	to SAN4;
	name lv_n15_SAN4;
	configuration SERVICE_DROP_CONFIG;
	length 33.666011576;
}

object triplex_line {
	phases BS;
	from n15;
	to SAN6A;
	name lv_n15_SAN6A;
	configuration SERVICE_DROP_CONFIG;
	length 33.666011576;
}

object triplex_line {
	phases BS;
	from n14;
	to n13;
	name lv_n14_n13;
	configuration SERVICE_DROP_CONFIG;
	length 118.909780708;
}

object triplex_line {
	phases BS;
	from n14;
	to CN29;
	name lv_n14_CN29;
	configuration SERVICE_DROP_CONFIG;
	length 49.331366408;
}

object triplex_line {
	phases BS;
	from n16;
	to n17;
	name lv_n16_n17;
	configuration SERVICE_DROP_CONFIG;
	length 113.958665064;
}

object triplex_line {
	phases BS;
	from n16;
	to SAN10;
	name lv_n16_SAN10;
	configuration SERVICE_DROP_CONFIG;
	length 43.001641796;
}

object triplex_line {
	phases BS;
	from n16;
	to SAN7;
	name lv_n16_SAN7;
	configuration SERVICE_DROP_CONFIG;
	length 43.001641796;
}

object triplex_line {
	phases BS;
	from n16;
	to SAN1;
	name lv_n16_SAN1;
	configuration SERVICE_DROP_CONFIG;
	length 43.001641796;
}

object triplex_line {
	phases BS;
	from n15;
	to SAN2;
	name lv_n15_SAN2;
	configuration SERVICE_DROP_CONFIG;
	length 33.666011576;
}

object triplex_line {
	phases BS;
	from n13;
	to n11;
	name lv_n13_n11;
	configuration SERVICE_DROP_CONFIG;
	length 74.131235968;
}

object triplex_line {
	phases BS;
	from n13;
	to CN37;
	name lv_n13_CN37;
	configuration SERVICE_DROP_CONFIG;
	length 61.887797256;
}

object triplex_line {
	phases BS;
	from n13;
	to CN30;
	name lv_n13_CN30;
	configuration SERVICE_DROP_CONFIG;
	length 61.887797256;
}

object triplex_line {
	phases BS;
	from n13;
	to CN28;
	name lv_n13_CN28;
	configuration SERVICE_DROP_CONFIG;
	length 61.887797256;
}

object triplex_line {
	phases BS;
	from n17;
	to n18;
	name lv_n17_n18;
	configuration SERVICE_DROP_CONFIG;
	length 139.104007076;
}

object triplex_line {
	phases BS;
	from n17;
	to SAN18;
	name lv_n17_SAN18;
	configuration SERVICE_DROP_CONFIG;
	length 71.339897296;
}

object triplex_line {
	phases BS;
	from n17;
	to SAN15;
	name lv_n17_SAN15;
	configuration SERVICE_DROP_CONFIG;
	length 71.339897296;
}

object triplex_line {
	phases BS;
	from n17;
	to SAN9;
	name lv_n17_SAN9;
	configuration SERVICE_DROP_CONFIG;
	length 71.339897296;
}

object triplex_line {
	phases BS;
	from n17;
	to JC5;
	name lv_n17_JC5;
	configuration SERVICE_DROP_CONFIG;
	length 71.339897296;
}

object triplex_line {
	phases BS;
	from n17;
	to JC3;
	name lv_n17_JC3;
	configuration SERVICE_DROP_CONFIG;
	length 71.339897296;
}

object triplex_line {
	phases BS;
	from n16;
	to SAN12;
	name lv_n16_SAN12;
	configuration SERVICE_DROP_CONFIG;
	length 43.001641796;
}

object triplex_line {
	phases BS;
	from n11;
	to n10;
	name lv_n11_n10;
	configuration SERVICE_DROP_CONFIG;
	length 144.775595184;
}

object triplex_line {
	phases BS;
	from n11;
	to SAT5A;
	name lv_n11_SAT5A;
	configuration SERVICE_DROP_CONFIG;
	length 60.953742108;
}

object triplex_line {
	phases BS;
	from n11;
	to SAT3;
	name lv_n11_SAT3;
	configuration SERVICE_DROP_CONFIG;
	length 60.953742108;
}

object triplex_line {
	phases BS;
	from n11;
	to DI6;
	name lv_n11_DI6;
	configuration SERVICE_DROP_CONFIG;
	length 60.953742108;
}

object triplex_line {
	phases BS;
	from n11;
	to DI4A;
	name lv_n11_DI4A;
	configuration SERVICE_DROP_CONFIG;
	length 60.953742108;
}

object triplex_line {
	phases BS;
	from n13;
	to CN35;
	name lv_n13_CN35;
	configuration SERVICE_DROP_CONFIG;
	length 61.887797256;
}

object triplex_line {
	phases BS;
	from n13;
	to CN39;
	name lv_n13_CN39;
	configuration SERVICE_DROP_CONFIG;
	length 61.887797256;
}

object triplex_line {
	phases BS;
	from n18;
	to n19;
	name lv_n18_n19;
	configuration SERVICE_DROP_CONFIG;
	length 119.78674924;
}

object triplex_line {
	phases BS;
	from n18;
	to SAN20;
	name lv_n18_SAN20;
	configuration SERVICE_DROP_CONFIG;
	length 62.2047264;
}

object triplex_line {
	phases BS;
	from n18;
	to SAN22;
	name lv_n18_SAN22;
	configuration SERVICE_DROP_CONFIG;
	length 62.2047264;
}

object triplex_line {
	phases BS;
	from n18;
	to JC6;
	name lv_n18_JC6;
	configuration SERVICE_DROP_CONFIG;
	length 62.2047264;
}

object triplex_line {
	phases BS;
	from n10;
	to n9;
	name lv_n10_n9;
	configuration SERVICE_DROP_CONFIG;
	length 44.219489604;
}

object triplex_line {
	phases BS;
	from n10;
	to SAT11;
	name lv_n10_SAT11;
	configuration SERVICE_DROP_CONFIG;
	length 10.658464908;
}

object triplex_line {
	phases BS;
	from n19;
	to n20;
	name lv_n19_n20;
	configuration SERVICE_DROP_CONFIG;
	length 117.025594296;
}

object triplex_line {
	phases BS;
	from n19;
	to SAN25;
	name lv_n19_SAN25;
	configuration SERVICE_DROP_CONFIG;
	length 51.114174864;
}

object triplex_line {
	phases BS;
	from n19;
	to SAN26;
	name lv_n19_SAN26;
	configuration SERVICE_DROP_CONFIG;
	length 51.114174864;
}

object triplex_line {
	phases BS;
	from n19;
	to SAN28;
	name lv_n19_SAN28;
	configuration SERVICE_DROP_CONFIG;
	length 51.114174864;
}

object triplex_line {
	phases BS;
	from n19;
	to SAN32;
	name lv_n19_SAN32;
	configuration SERVICE_DROP_CONFIG;
	length 51.114174864;
}

object triplex_line {
	phases BS;
	from n19;
	to SAN30;
	name lv_n19_SAN30;
	configuration SERVICE_DROP_CONFIG;
	length 51.114174864;
}

object triplex_line {
	phases BS;
	from n9;
	to n8;
	name lv_n9_n8;
	configuration SERVICE_DROP_CONFIG;
	length 82.559385844;
}

object triplex_line {
	phases BS;
	from n9;
	to SAT17A;
	name lv_n9_SAT17A;
	configuration SERVICE_DROP_CONFIG;
	length 15.68077478;
}

object triplex_line {
	phases BS;
	from n9;
	to SAT13;
	name lv_n9_SAT13;
	configuration SERVICE_DROP_CONFIG;
	length 15.68077478;
}

object triplex_line {
	phases BS;
	from n9;
	to SAT15;
	name lv_n9_SAT15;
	configuration SERVICE_DROP_CONFIG;
	length 15.68077478;
}

object triplex_line {
	phases BS;
	from n20;
	to n21;
	name lv_n20_n21;
	configuration SERVICE_DROP_CONFIG;
	length 138.525594984;
}

object triplex_line {
	phases BS;
	from n20;
	to SAN29;
	name lv_n20_SAN29;
	configuration SERVICE_DROP_CONFIG;
	length 37.606300416;
}

object triplex_line {
	phases BS;
	from n20;
	to SAN36;
	name lv_n20_SAN36;
	configuration SERVICE_DROP_CONFIG;
	length 37.606300416;
}

object triplex_line {
	phases BS;
	from n20;
	to SAN31;
	name lv_n20_SAN31;
	configuration SERVICE_DROP_CONFIG;
	length 37.606300416;
}

object triplex_line {
	phases BS;
	from n20;
	to QI4;
	name lv_n20_QI4;
	configuration SERVICE_DROP_CONFIG;
	length 37.606300416;
}

object triplex_line {
	phases BS;
	from n20;
	to QI6;
	name lv_n20_QI6;
	configuration SERVICE_DROP_CONFIG;
	length 37.606300416;
}

object triplex_line {
	phases BS;
	from n19;
	to SAN27;
	name lv_n19_SAN27;
	configuration SERVICE_DROP_CONFIG;
	length 51.114174864;
}

object triplex_line {
	phases BS;
	from n8;
	to n7;
	name lv_n8_n7;
	configuration SERVICE_DROP_CONFIG;
	length 137.714571336;
}

object triplex_line {
	phases BS;
	from n8;
	to SAT19;
	name lv_n8_SAT19;
	configuration SERVICE_DROP_CONFIG;
	length 18.090223676;
}

object triplex_line {
	phases BS;
	from n8;
	to SAT2;
	name lv_n8_SAT2;
	configuration SERVICE_DROP_CONFIG;
	length 18.090223676;
}

object triplex_line {
	phases BS;
	from n8;
	to SAT25;
	name lv_n8_SAT25;
	configuration SERVICE_DROP_CONFIG;
	length 18.090223676;
}

object triplex_line {
	phases BS;
	from n8;
	to SAT2A;
	name lv_n8_SAT2A;
	configuration SERVICE_DROP_CONFIG;
	length 18.090223676;
}

object triplex_line {
	phases BS;
	from n21;
	to n23;
	name lv_n21_n23;
	configuration SERVICE_DROP_CONFIG;
	length 184.287735556;
}

object triplex_line {